** this file was translated by software: CircleCircle2, Tue Jul 21 21:21:37 2026
** software isn't human, it can make mistakes
** 
** 
*NODE
18000090  ,  -779.3928182756,  -442.3752121582,   335.2811556878
18000091  ,  -779.3928182756,  -452.3752121582,   325.2811556878
18000092  ,  -779.3928182756,  -432.3752121582,   345.2811556878
18000093  ,  -779.3928182756,  -442.3752121582,   335.2811556878
18000094  ,  -779.3928182756,  -452.3752121582,   325.2811556878
18000095  ,  -779.3928182756,  -432.3752121582,   345.2811556878
18000096  ,  -779.3928182756,  -442.3752121582,   335.2811556878
18000097  ,  -779.3928182756,  -452.3752121582,   325.2811556878
18000098  ,  -779.3928182756,  -432.3752121582,   345.2811556878
18000099  ,  -779.3928182756,  -442.3752121582,   335.2811556878
18000100  ,  -779.3928182756,  -452.3752121582,   325.2811556878
18000101  ,  -779.3928182756,  -432.3752121582,   345.2811556878
18034037  ,  -509.4500000000,   470.0363844642,   307.2204063966
18034038  ,  -509.4500000000,   465.8840594537,   306.5627427238
18034048  ,  -509.4500000000,   465.9003178267,   310.4762579497
18034049  ,  -509.4500000000,   468.8410672318,   310.9470041658
18034169  ,  -512.8420000000,   470.0363844642,   307.2204063966
18034170  ,  -512.8420000000,   468.8410672318,   310.9470041658
18034171  ,  -512.8420000000,   465.8840594537,   306.5627427238
18034172  ,  -512.8420000000,   465.9003178267,   310.4762579497
** ... 4519 like lines cut
*NODE
18046128  ,  -848.5118944094,  -102.9189858006,    13.2746690116
18046129  ,  -681.8706670000,   115.1869960000,   308.7244260000
18046130  ,  -733.8706670000,   115.1869960000,   308.7244260000
**HW_COMPONENT     ID=1800059     COLOR=1800059     NAME=Support_plate_S628_5p0     PROPERTY=p_shell_5.0_S620_Alu_Gissmo
*ELEMENT,TYPE=S3,ELSET=p_shell_5.0_S620_Alu_Gissmo
18035299  ,18041256  ,18041228  ,18041229  
**HW_COMPONENT     ID=1800059     COLOR=1800059     NAME=Support_plate_S628_5p0     PROPERTY=p_shell_5.0_S620_Alu_Gissmo
*ELEMENT,TYPE=S4,ELSET=p_shell_5.0_S620_Alu_Gissmo
18035286  ,18039425  ,18041229  ,18041228  ,18041236  
**HW_COMPONENT     ID=1800062     COLOR=1800062     NAME=tow_hook_shell     PROPERTY=p_shell_3p5mm_minth_s620
*ELEMENT,TYPE=S4,ELSET=p_shell_3p5mm_minth_s620
18035301  ,18041293  ,18041294  ,18041281  ,18041282  
18035302  ,18041295  ,18041293  ,18041282  ,18041283  
18035303  ,18041294  ,18041298  ,18041280  ,18041281  
18035304  ,18041296  ,18041297  ,18041294  ,18041293  
18035305  ,18041299  ,18041296  ,18041293  ,18041295  
18035306  ,18041302  ,18041295  ,18041283  ,18041284  
18035307  ,18041297  ,18041303  ,18041298  ,18041294  
18035308  ,18041300  ,18041301  ,18041297  ,18041296  
18035309  ,18041304  ,18041300  ,18041296  ,18041299  
18035310  ,18041307  ,18041299  ,18041295  ,18041302  
18035311  ,18041298  ,18041310  ,18041279  ,18041280  
18035312  ,18041301  ,18041308  ,18041303  ,18041297  
18035313  ,18041305  ,18041306  ,18041301  ,18041300  
18035314  ,18041309  ,18041305  ,18041300  ,18041304  
18035315  ,18041313  ,18041304  ,18041299  ,18041307  
18035316  ,18041303  ,18041316  ,18041310  ,18041298  
18035317  ,18041284  ,18041285  ,18041318  ,18041302  
18035318  ,18041306  ,18041314  ,18041308  ,18041301  
18035319  ,18041311  ,18041312  ,18041306  ,18041305  
18035320  ,18041315  ,18041311  ,18041305  ,18041309  
** ... 252 like lines cut
**HW_COMPONENT     ID=1800068     COLOR=1800068     NAME=upper_beam_contact_1     PROPERTY=p_shell_5.0_default_2
*ELEMENT,TYPE=S4,ELSET=p_shell_5.0_default_2
18047961  ,18044825  ,18044827  ,18044821  ,18044822  
18047962  ,18044827  ,18044817  ,18044818  ,18044821  
18047963  ,18044809  ,18044810  ,18044828  ,18044826  
18047964  ,18044826  ,18044828  ,18044827  ,18044825  
18047965  ,18044810  ,18044811  ,18044816  ,18044828  
18047966  ,18044828  ,18044816  ,18044817  ,18044827  
18047967  ,18044689  ,18044829  ,18044824  ,18044688  
18047968  ,18044829  ,18044830  ,18044823  ,18044824  
18047969  ,18044830  ,18044825  ,18044822  ,18044823  
18047970  ,18044691  ,18044807  ,18044831  ,18044690  
18047971  ,18044690  ,18044831  ,18044829  ,18044689  
18047972  ,18044826  ,18044832  ,18044808  ,18044809  
18047973  ,18044832  ,18044831  ,18044807  ,18044808  
18047974  ,18044825  ,18044830  ,18044832  ,18044826  
18047975  ,18044830  ,18044829  ,18044831  ,18044832  
18047976  ,18044833  ,18044835  ,18044681  ,18044682  
18047977  ,18044835  ,18044820  ,18044680  ,18044681  
18047978  ,18044822  ,18044821  ,18044836  ,18044834  
18047979  ,18044834  ,18044836  ,18044835  ,18044833  
18047980  ,18044821  ,18044818  ,18044819  ,18044836  
** ... 52 like lines cut
**HW_COMPONENT     ID=1800069     COLOR=1800069     NAME=lower_beam     PROPERTY=p_shell_5.0_default_3
*ELEMENT,TYPE=S4,ELSET=p_shell_5.0_default_3
18048201  ,18044986  ,18044984  ,18044990  ,18044989  
18048202  ,18044984  ,18044994  ,18044993  ,18044990  
18048203  ,18045002  ,18045001  ,18044983  ,18044985  
18048204  ,18044985  ,18044983  ,18044984  ,18044986  
18048205  ,18045001  ,18045000  ,18044995  ,18044983  
18048206  ,18044983  ,18044995  ,18044994  ,18044984  
18048207  ,18045122  ,18044982  ,18044987  ,18045123  
18048208  ,18044982  ,18044981  ,18044988  ,18044987  
18048209  ,18044981  ,18044986  ,18044989  ,18044988  
18048210  ,18045120  ,18045004  ,18044980  ,18045121  
18048211  ,18045121  ,18044980  ,18044982  ,18045122  
18048212  ,18044985  ,18044979  ,18045003  ,18045002  
18048213  ,18044979  ,18044980  ,18045004  ,18045003  
18048214  ,18044986  ,18044981  ,18044979  ,18044985  
18048215  ,18044981  ,18044982  ,18044980  ,18044979  
18048216  ,18044978  ,18044976  ,18045130  ,18045129  
18048217  ,18044976  ,18044991  ,18045131  ,18045130  
18048218  ,18044989  ,18044990  ,18044975  ,18044977  
18048219  ,18044977  ,18044975  ,18044976  ,18044978  
18048220  ,18044990  ,18044993  ,18044992  ,18044975  
** ... 52 like lines cut
**HW_COMPONENT     ID=1800070     COLOR=1800070     NAME=mat20_title     PROPERTY=p_shell_3p5mm_Test_mat20_title
*ELEMENT,TYPE=S4,ELSET=p_shell_3p5mm_Test_mat20_title
18048319  ,18045223  ,18045225  ,18045219  ,18045220  
18048320  ,18045225  ,18045215  ,18045216  ,18045219  
18048321  ,18045210  ,18045211  ,18045226  ,18045224  
18048322  ,18045224  ,18045226  ,18045225  ,18045223  
18048323  ,18045211  ,18045212  ,18045214  ,18045226  
18048324  ,18045226  ,18045214  ,18045215  ,18045225  
18048325  ,18045200  ,18045227  ,18045222  ,18045199  
18048326  ,18045227  ,18045228  ,18045221  ,18045222  
18048327  ,18045228  ,18045223  ,18045220  ,18045221  
18048328  ,18045202  ,18045208  ,18045229  ,18045201  
18048329  ,18045201  ,18045229  ,18045227  ,18045200  
18048330  ,18045224  ,18045230  ,18045209  ,18045210  
18048331  ,18045230  ,18045229  ,18045208  ,18045209  
18048332  ,18045223  ,18045228  ,18045230  ,18045224  
18048333  ,18045228  ,18045227  ,18045229  ,18045230  
18048334  ,18045231  ,18045233  ,18045192  ,18045193  
18048335  ,18045233  ,18045218  ,18045191  ,18045192  
18048336  ,18045220  ,18045219  ,18045234  ,18045232  
18048337  ,18045232  ,18045234  ,18045233  ,18045231  
18048338  ,18045219  ,18045216  ,18045217  ,18045234  
** ... 52 like lines cut
**HW_COMPONENT     ID=1800071     COLOR=1800071     NAME=mat123_title     PROPERTY=p_shell_3p5mm_S620_Alu_Gissmo_HAZ
*ELEMENT,TYPE=S4,ELSET=p_shell_3p5mm_S620_Alu_Gissmo_HAZ
18048391  ,18045314  ,18045316  ,18045310  ,18045311  
18048392  ,18045316  ,18045306  ,18045307  ,18045310  
18048393  ,18045301  ,18045302  ,18045317  ,18045315  
18048394  ,18045315  ,18045317  ,18045316  ,18045314  
18048395  ,18045302  ,18045303  ,18045305  ,18045317  
18048396  ,18045317  ,18045305  ,18045306  ,18045316  
18048397  ,18045291  ,18045318  ,18045313  ,18045290  
18048398  ,18045318  ,18045319  ,18045312  ,18045313  
18048399  ,18045319  ,18045314  ,18045311  ,18045312  
18048400  ,18045293  ,18045299  ,18045320  ,18045292  
18048401  ,18045292  ,18045320  ,18045318  ,18045291  
18048402  ,18045315  ,18045321  ,18045300  ,18045301  
18048403  ,18045321  ,18045320  ,18045299  ,18045300  
18048404  ,18045314  ,18045319  ,18045321  ,18045315  
18048405  ,18045319  ,18045318  ,18045320  ,18045321  
18048406  ,18045322  ,18045324  ,18045283  ,18045284  
18048407  ,18045324  ,18045309  ,18045282  ,18045283  
18048408  ,18045311  ,18045310  ,18045325  ,18045323  
18048409  ,18045323  ,18045325  ,18045324  ,18045322  
18048410  ,18045310  ,18045307  ,18045308  ,18045325  
** ... 52 like lines cut
**HW_COMPONENT     ID=1800072     COLOR=1800072     NAME=upper_beam_mat133     PROPERTY=p_shell_3p5mm_minth_s632
*ELEMENT,TYPE=S4,ELSET=p_shell_3p5mm_minth_s632
18048463  ,18045405  ,18045407  ,18045401  ,18045402  
18048464  ,18045407  ,18045397  ,18045398  ,18045401  
18048465  ,18045392  ,18045393  ,18045408  ,18045406  
18048466  ,18045406  ,18045408  ,18045407  ,18045405  
18048467  ,18045393  ,18045394  ,18045396  ,18045408  
18048468  ,18045408  ,18045396  ,18045397  ,18045407  
18048469  ,18045382  ,18045409  ,18045404  ,18045381  
18048470  ,18045409  ,18045410  ,18045403  ,18045404  
18048471  ,18045410  ,18045405  ,18045402  ,18045403  
18048472  ,18045384  ,18045390  ,18045411  ,18045383  
18048473  ,18045383  ,18045411  ,18045409  ,18045382  
18048474  ,18045406  ,18045412  ,18045391  ,18045392  
18048475  ,18045412  ,18045411  ,18045390  ,18045391  
18048476  ,18045405  ,18045410  ,18045412  ,18045406  
18048477  ,18045410  ,18045409  ,18045411  ,18045412  
18048478  ,18045413  ,18045415  ,18045374  ,18045375  
18048479  ,18045415  ,18045400  ,18045373  ,18045374  
18048480  ,18045402  ,18045401  ,18045416  ,18045414  
18048481  ,18045414  ,18045416  ,18045415  ,18045413  
18048482  ,18045401  ,18045398  ,18045399  ,18045416  
** ... 52 like lines cut
**HW_COMPONENT     ID=1800060     COLOR=1800060     NAME=solid_2     PROPERTY=p_solid_1_default_2
*ELEMENT,TYPE=C3D4,ELSET=p_solid_1_default_2
18004156  ,18041240  ,18041249  ,18041248  ,18041250  
18004159  ,18041249  ,18041240  ,18041239  ,18041250  
**HW_COMPONENT     ID=1800066     COLOR=1800066     NAME=tow_hook_solid_1     PROPERTY=p_solid_1_default_1
*ELEMENT,TYPE=C3D4,ELSET=p_solid_1_default_1
18037979  ,18042047  ,18041988  ,18042505  ,18042045  
18037980  ,18042429  ,18042397  ,18041918  ,18042395  
18037981  ,18042520  ,18042089  ,18042120  ,18042540  
18037982  ,18042102  ,18042494  ,18042061  ,18042527  
18037983  ,18042506  ,18042000  ,18042046  ,18042453  
18037984  ,18042089  ,18042118  ,18042120  ,18042540  
18037985  ,18042457  ,18042459  ,18041992  ,18042416  
18037986  ,18042070  ,18042532  ,18042094  ,18042096  
18037987  ,18041963  ,18042418  ,18041986  ,18042463  
18037988  ,18042457  ,18041992  ,18041971  ,18042416  
18037989  ,18041557  ,18042217  ,18042791  ,18042181  
18037990  ,18042516  ,18042050  ,18042123  ,18042495  
18037991  ,18042483  ,18042511  ,18042085  ,18042518  
18037992  ,18042065  ,18042064  ,18042761  ,18042767  
18037993  ,18042414  ,18042459  ,18041989  ,18042461  
18037994  ,18042158  ,18042145  ,18042202  ,18042764  
18037995  ,18042118  ,18042087  ,18042117  ,18042540  
18037996  ,18042487  ,18042084  ,18042086  ,18042528  
18037997  ,18042530  ,18042126  ,18042545  ,18042096  
18037998  ,18041972  ,18041974  ,18042443  ,18041898  
** ... 3885 like lines cut
**HW_COMPONENT     ID=1800067     COLOR=1800067     NAME=tow_hook_solid_2     PROPERTY=p_solid4_S620_Alu_Gissmo
*ELEMENT,TYPE=C3D4,ELSET=p_solid4_S620_Alu_Gissmo
18043872  ,18043439  ,18043437  ,18043410  ,18043861  
18043873  ,18043171  ,18043487  ,18043172  ,18043862  
18043874  ,18043100  ,18043050  ,18043099  ,18043874  
18043875  ,18043584  ,18043213  ,18043265  ,18043268  
18043876  ,18043163  ,18043201  ,18043199  ,18043863  
18043877  ,18043218  ,18043152  ,18043543  ,18043215  
18043878  ,18043167  ,18043205  ,18043203  ,18043865  
18043879  ,18043171  ,18043169  ,18043129  ,18043512  
18043880  ,18043261  ,18043263  ,18043319  ,18043864  
18043881  ,18043278  ,18043581  ,18043287  ,18043288  
18043882  ,18042841  ,18043324  ,18043362  ,18042842  
18043883  ,18043498  ,18043121  ,18043527  ,18043866  
18043884  ,18043037  ,18043005  ,18043455  ,18043861  
18043885  ,18043181  ,18043219  ,18043216  ,18043907  
18043886  ,18043508  ,18043172  ,18043209  ,18043210  
18043887  ,18043174  ,18043132  ,18043134  ,18043867  
18043888  ,18043259  ,18043257  ,18043204  ,18043591  
18043889  ,18043257  ,18043554  ,18043204  ,18043591  
18043890  ,18043260  ,18043262  ,18043265  ,18043562  
18043891  ,18043153  ,18043518  ,18043111  ,18043868  
** ... 3613 like lines cut
**HW_COMPONENT     ID=1800001     COLOR=1800001     NAME=bracket     PROPERTY=p_solid_1_S632_MAT133_Gissmo
*ELEMENT,TYPE=C3D5,ELSET=p_solid_1_S632_MAT133_Gissmo
18048317  ,18034169  ,18034171  ,18034172  ,18034170  ,18045180  
18048318  ,18034169  ,18034249  ,18034251  ,18034171  ,18045182  
**HW_COMPONENT     ID=1800001     COLOR=1800001     NAME=bracket     PROPERTY=p_solid_1_S632_MAT133_Gissmo
*ELEMENT,TYPE=C3D6,ELSET=p_solid_1_S632_MAT133_Gissmo
18004130  ,18036117  ,18036120  ,18036128  ,18036173  ,18036176  ,18036184  
**HW_COMPONENT     ID=1800001     COLOR=1800001     NAME=bracket     PROPERTY=p_solid_1_S632_MAT133_Gissmo
*ELEMENT,TYPE=C3D8,ELSET=p_solid_1_S632_MAT133_Gissmo
18002694  ,18034252  ,18034250  ,18034249  ,18034251  ,18034172  ,18034170  ,18034169  ,18034171  
18002754  ,18034048  ,18034049  ,18034037  ,18034038  ,18034252  ,18034250  ,18034249  ,18034251  
18002765  ,18034440  ,18034438  ,18034437  ,18034439  ,18034400  ,18034398  ,18034397  ,18034399  
18004125  ,18036144  ,18036145  ,18036173  ,18036176  ,18036088  ,18036089  ,18036117  ,18036120  
**HW_COMPONENT     ID=1800064     COLOR=1800064     NAME=tow_hook_solid     PROPERTY=p_solid_1_default_3
*ELEMENT,TYPE=C3D8,ELSET=p_solid_1_default_3
18047521  ,18043963  ,18043985  ,18043972  ,18043973  ,18043993  ,18043994  ,18043995  ,18043996  
18047522  ,18043993  ,18043994  ,18043995  ,18043996  ,18043997  ,18043998  ,18043999  ,18044000  
18047523  ,18043997  ,18043998  ,18043999  ,18044000  ,18044001  ,18044002  ,18044003  ,18044004  
18047524  ,18044001  ,18044002  ,18044003  ,18044004  ,18044005  ,18044006  ,18044007  ,18044008  
18047525  ,18044005  ,18044006  ,18044007  ,18044008  ,18044009  ,18044010  ,18044011  ,18044012  
18047526  ,18044009  ,18044010  ,18044011  ,18044012  ,18044013  ,18044014  ,18044015  ,18044016  
18047527  ,18044013  ,18044014  ,18044015  ,18044016  ,18044017  ,18044018  ,18044019  ,18044020  
18047528  ,18044017  ,18044018  ,18044019  ,18044020  ,18044021  ,18044022  ,18044023  ,18044024  
18047529  ,18044021  ,18044022  ,18044023  ,18044024  ,18044025  ,18044026  ,18044027  ,18044028  
18047530  ,18044025  ,18044026  ,18044027  ,18044028  ,18044029  ,18044030  ,18044031  ,18044032  
18047531  ,18044029  ,18044030  ,18044031  ,18044032  ,18044033  ,18044034  ,18044035  ,18044036  
18047532  ,18044033  ,18044034  ,18044035  ,18044036  ,18044037  ,18044038  ,18044039  ,18044040  
18047533  ,18044037  ,18044038  ,18044039  ,18044040  ,18044041  ,18044042  ,18044043  ,18044044  
18047534  ,18044041  ,18044042  ,18044043  ,18044044  ,18044045  ,18044046  ,18044047  ,18044048  
18047535  ,18044045  ,18044046  ,18044047  ,18044048  ,18044049  ,18044050  ,18044051  ,18044052  
18047536  ,18044049  ,18044050  ,18044051  ,18044052  ,18044053  ,18044054  ,18044055  ,18044056  
18047537  ,18044053  ,18044054  ,18044055  ,18044056  ,18044057  ,18044058  ,18044059  ,18044060  
18047538  ,18044057  ,18044058  ,18044059  ,18044060  ,18044061  ,18044062  ,18044063  ,18044064  
18047539  ,18044061  ,18044062  ,18044063  ,18044064  ,18044065  ,18044066  ,18044067  ,18044068  
18047540  ,18044065  ,18044066  ,18044067  ,18044068  ,18044069  ,18044070  ,18044071  ,18044072  
** ... 300 like lines cut
**HW_COMPONENT     ID=1800073     COLOR=1800073     NAME=part_inertia_1     PROPERTY=p_solid4_minth_s632
*ELEMENT,TYPE=C3D8,ELSET=p_solid4_minth_s632
18048535  ,18045462  ,18045480  ,18045467  ,18045468  ,18045488  ,18045489  ,18045490  ,18045491  
18048536  ,18045488  ,18045489  ,18045490  ,18045491  ,18045492  ,18045493  ,18045494  ,18045495  
18048537  ,18045492  ,18045493  ,18045494  ,18045495  ,18045496  ,18045497  ,18045498  ,18045499  
18048538  ,18045496  ,18045497  ,18045498  ,18045499  ,18045500  ,18045501  ,18045502  ,18045503  
18048539  ,18045500  ,18045501  ,18045502  ,18045503  ,18045504  ,18045505  ,18045506  ,18045507  
18048540  ,18045504  ,18045505  ,18045506  ,18045507  ,18045508  ,18045509  ,18045510  ,18045511  
18048541  ,18045508  ,18045509  ,18045510  ,18045511  ,18045512  ,18045513  ,18045514  ,18045515  
18048542  ,18045512  ,18045513  ,18045514  ,18045515  ,18045516  ,18045517  ,18045518  ,18045519  
18048543  ,18045516  ,18045517  ,18045518  ,18045519  ,18045520  ,18045521  ,18045522  ,18045523  
18048544  ,18045520  ,18045521  ,18045522  ,18045523  ,18045524  ,18045525  ,18045526  ,18045527  
18048545  ,18045524  ,18045525  ,18045526  ,18045527  ,18045528  ,18045529  ,18045530  ,18045531  
18048546  ,18045528  ,18045529  ,18045530  ,18045531  ,18045532  ,18045533  ,18045534  ,18045535  
18048547  ,18045532  ,18045533  ,18045534  ,18045535  ,18045536  ,18045537  ,18045538  ,18045539  
18048548  ,18045536  ,18045537  ,18045538  ,18045539  ,18045540  ,18045541  ,18045542  ,18045543  
18048549  ,18045540  ,18045541  ,18045542  ,18045543  ,18045544  ,18045545  ,18045546  ,18045547  
18048550  ,18045544  ,18045545  ,18045546  ,18045547  ,18045548  ,18045549  ,18045550  ,18045551  
18048551  ,18045548  ,18045549  ,18045550  ,18045551  ,18045552  ,18045553  ,18045554  ,18045555  
18048552  ,18045552  ,18045553  ,18045554  ,18045555  ,18045556  ,18045557  ,18045558  ,18045559  
18048553  ,18045556  ,18045557  ,18045558  ,18045559  ,18045560  ,18045561  ,18045562  ,18045563  
18048554  ,18045560  ,18045561  ,18045562  ,18045563  ,18045564  ,18045565  ,18045566  ,18045567  
** ... 300 like lines cut
*MATERIAL, NAME=S632_MAT133_Gissmo
*DENSITY
2.7e-06, 0.0
*ELASTIC, TYPE = ISOTROPIC
70.0, 0.3, 0.0
*PLASTIC
0.0, 320.0,
0.02, 321.2, 
0.03, 322.2, 
0.05, 325.5, 
*MATERIAL, NAME=S620_Alu_Gissmo
*DENSITY
2.7e-06, 0.0
*ELASTIC, TYPE = ISOTROPIC
70.0, 0.3, 0.0
*PLASTIC
0.0, 200.0,
0.01, 201.2, 
0.02, 202.2, 
0.04, 210.5, 
*MATERIAL, NAME=default_2
*DENSITY
2.7e-06, 0.0
*ELASTIC, TYPE = ISOTROPIC
70.0, 0.33, 0.0
*MATERIAL, NAME=minth_s620
*DENSITY
2.7e-06, 0.0
*ELASTIC, TYPE = ISOTROPIC
70.0, 0.3, 0.0
*PLASTIC
0.0, 200.0,
0.01, 201.2, 
0.02, 202.2, 
0.04, 210.5, 
*MATERIAL, NAME=default_3
*DENSITY
7.85e-06, 0.0
*ELASTIC, TYPE = ISOTROPIC
210.0, 0.33, 0.0
*MATERIAL, NAME=Test_mat20_title
*DENSITY
7.85e-06, 0.0
*ELASTIC, TYPE = ISOTROPIC
210.0, 0.33, 0.0
*MATERIAL, NAME=S620_Alu_Gissmo_HAZ
*DENSITY
2.7e-06, 0.0
*ELASTIC, TYPE = ISOTROPIC
70.0, 0.3, 0.0
*PLASTIC
0.0, 180.0,
0.01, 181.2, 
0.02, 182.2, 
0.04, 190.5, 
*MATERIAL, NAME=minth_s632
*DENSITY
2.7e-06, 0.0
*ELASTIC, TYPE = ISOTROPIC
70.0, 0.3, 0.0
*PLASTIC
0.0, 320.0,
0.02, 321.2, 
0.03, 322.2, 
0.05, 325.5, 
*SHELL SECTION, ELSET=p_shell_5.0_S620_Alu_Gissmo, MATERIAL=S620_Alu_Gissmo
5.0       ,2.4       
*SHELL SECTION, ELSET=p_shell_3p5mm_minth_s620, MATERIAL=minth_s620
3.5       ,5         
*SHELL SECTION, ELSET=p_shell_5.0_default_2, MATERIAL=default_2
5.0       ,2.4       
*SHELL SECTION, ELSET=p_shell_5.0_default_3, MATERIAL=default_3
5.0       ,2.4       
*SHELL SECTION, ELSET=p_shell_3p5mm_Test_mat20_title, MATERIAL=Test_mat20_title
3.5       ,5         
*SHELL SECTION, ELSET=p_shell_3p5mm_S620_Alu_Gissmo_HAZ, MATERIAL=S620_Alu_Gissmo_HAZ
3.5       ,5         
*SHELL SECTION, ELSET=p_shell_3p5mm_minth_s632, MATERIAL=minth_s632
3.5       ,5         
*SOLID SECTION, ELSET=p_solid_1_S632_MAT133_Gissmo, MATERIAL=S632_MAT133_Gissmo
*SOLID SECTION, ELSET=p_solid_1_default_2, MATERIAL=default_2
*SOLID SECTION, ELSET=p_solid_1_default_3, MATERIAL=default_3
*SOLID SECTION, ELSET=p_solid_1_default_1, MATERIAL=default_1
*SOLID SECTION, ELSET=p_solid4_S620_Alu_Gissmo, MATERIAL=S620_Alu_Gissmo
*SOLID SECTION, ELSET=p_solid4_minth_s632, MATERIAL=minth_s632
*KINEMATIC COUPLING,REF NODE=18046128
18043945  , 1, 6
18043948  , 1, 6
18043951  , 1, 6
18043954  , 1, 6
18043957  , 1, 6
18043960  , 1, 6
18043963  , 1, 6
18043966  , 1, 6
18043969  , 1, 6
18043970  , 1, 6
18043971  , 1, 6
18043972  , 1, 6
18043973  , 1, 6
18043974  , 1, 6
18043975  , 1, 6
18043976  , 1, 6
18043977  , 1, 6
18043978  , 1, 6
18043979  , 1, 6
18043980  , 1, 6
** ... 652 like lines cut
*KINEMATIC COUPLING,REF NODE=18046129
18044928  , 1, 6
18044929  , 1, 6
18044930  , 1, 6
18044931  , 1, 6
18044932  , 1, 6
18044933  , 1, 6
18044934  , 1, 6
18044935  , 1, 6
18044936  , 1, 6
18044937  , 1, 6
18044938  , 1, 6
18044939  , 1, 6
18044940  , 1, 6
18044941  , 1, 6
18044942  , 1, 6
18044943  , 1, 6
18044944  , 1, 6
18044945  , 1, 6
18044946  , 1, 6
18044947  , 1, 6
** ... 71 like lines cut
*KINEMATIC COUPLING,REF NODE=18046130
18045183  , 1, 6
18045184  , 1, 6
18045185  , 1, 6
18045186  , 1, 6
18045187  , 1, 6
18045188  , 1, 6
18045189  , 1, 6
18045190  , 1, 6
18045191  , 1, 6
18045192  , 1, 6
18045193  , 1, 6
18045194  , 1, 6
18045195  , 1, 6
18045196  , 1, 6
18045197  , 1, 6
18045198  , 1, 6
18045199  , 1, 6
18045200  , 1, 6
18045201  , 1, 6
18045202  , 1, 6
** ... 71 like lines cut
*KINEMATIC COUPLING,REF NODE=18041257
18034037  , 1, 6
18034038  , 1, 6
18034048  , 1, 6
18034049  , 1, 6
18041228  , 1, 6
18041229  , 1, 6
18041256  , 1, 6
*BOUNDARY
18046128          , 2, 2, 0.0
18046128          , 3, 3, 0.0
18046128          , 5, 5, 0.0
*BOUNDARY
18046129          , 2, 2, 0.0
18046129          , 3, 3, 0.0
18046129          , 5, 5, 0.0
*BOUNDARY
18046130          , 1, 1, 0.0
18046130          , 5, 5, 0.0
