$$ HM_OUTPUT_DECK created 16:08:23 07-12-2026 by HyperMesh Version 2026.0.0.27
$$ Ls-dyna Input Deck Generated by HyperMesh Version  : 2026.0.0.27
$$ Generated using HyperMesh-Ls-dyna 971_R13.1 Template Version : 2026.0.0.27-290296
*KEYWORD
*PARAMETER
R    TW_01       2.4
R    TW_02       2.2
*DATABASE_HISTORY_NODE
$HMNAME OUTPUTBLOCKS       1output_1                                                                
$       ID        ID        ID        ID        ID        ID        ID        ID
  18043945  18043948  18043951  18043954  18043957  18043960  18043963  18043966
  18043969  18043970  18043971  18043972  18043973  18043974  18043975  18043976
  18043977  18043978  18043979  18043980  18043981  18043982  18043983  18043984
  18043985  18043986  18043987  18043988  18043989  18043990  18043991  18043992
  18043993  18043994  18043995  18043996  18043997  18043998  18043999  18044000
  18044001  18044002  18044003  18044004  18044005  18044006  18044073  18044074
  18044075  18044076  18044077  18044078  18044113  18044114  18044115  18044116
  18044117  18044118  18044153  18044154  18044155  18044156  18044157  18044193
  18044194  18044195  18044196  18044198  18044233  18044234  18044235  18044236
  18044273  18044274  18044275  18044276  18044313  18044314  18044353  18044354
  18044393  18044433  18044434  18044474  18044514
*DATABASE_HISTORY_NODE
$HMNAME OUTPUTBLOCKS       2output_2                                                                
$       ID        ID        ID        ID        ID        ID        ID        ID
  18044067  18044068  18044069  18044070  18044071  18044072  18044109  18044111
  18044112  18044149  18044151  18044152  18044189  18044190  18044191  18044192
  18044229  18044230  18044231  18044232  18044267  18044269  18044271  18044272
  18044307  18044308  18044309  18044310  18044311  18044312  18044347  18044349
  18044351  18044387  18044388  18044389  18044390  18044391  18044392  18044429
  18044431  18044465  18044466  18044467  18044468  18044469  18044470  18044471
  18044472  18044510  18044512  18044543  18044545  18044546  18044547  18044548
  18044549  18044550  18044551  18044552  18044586  18044588  18044590  18044591
  18044592  18044623  18044625  18044626  18044627  18044628  18044629  18044630
  18044631  18044632
*DATABASE_CROSS_SECTION_PLANE_ID
$HWCOLOR CROSSSECTIONS       1      59
$     CSIDNAME                                                                  
         1crosssection1                                                         
$     PSID       XCT       YCT       ZCT       XCH       YCH       ZCH    RADIUS
   1801000-822.99748-121.1597329.9269145-823.94367-120.8363229.9155234     100.0
$     XHEV      YHEV      ZHEV      LENL      LENM        ID     ITYPE
       0.0       0.0       0.0       0.0       0.0         0         0
*NODE
$    NID               X               Y               Z      TC      RC
18000090 -779.3928182756 -442.3752121582 335.28115568783                
18000091 -779.3928182756 -452.3752121582 325.28115568783                
18000092 -779.3928182756 -432.3752121582 345.28115568783                
18000093 -779.3928182756 -442.3752121582 335.28115568783                
18000094 -779.3928182756 -452.3752121582 325.28115568783                
18000095 -779.3928182756 -432.3752121582 345.28115568783                
18000096 -779.3928182756 -442.3752121582 335.28115568783                
18000097 -779.3928182756 -452.3752121582 325.28115568783                
18000098 -779.3928182756 -432.3752121582 345.28115568783                
18000099 -779.3928182756 -442.3752121582 335.28115568783                
18000100 -779.3928182756 -452.3752121582 325.28115568783                
18000101 -779.3928182756 -432.3752121582 345.28115568783                
18034037         -509.45 470.03638446422 307.22040639664       0       0
18034038         -509.45 465.88405945374 306.56274272382       0       0
18034048         -509.45 465.90031782674 310.47625794972       0       0
18034049         -509.45 468.84106723177  310.9470041658       0       0
18034169        -512.842 470.03638446422 307.22040639664       0       0
18034170        -512.842 468.84106723177  310.9470041658       0       0
18034171        -512.842 465.88405945374 306.56274272382       0       0
18034172        -512.842 465.90031782674 310.47625794972       0       0
$ ... 4519 like lines cut
*ELEMENT_SHELL
$    EID     PID      N1      N2      N3      N4
18035299 180005918041256180412281804122918041229
*ELEMENT_SHELL
$    EID     PID      N1      N2      N3      N4
18035286 180005918039425180412291804122818041236
18035301 180006218041293180412941804128118041282
18035302 180006218041295180412931804128218041283
18035303 180006218041294180412981804128018041281
18035304 180006218041296180412971804129418041293
18035305 180006218041299180412961804129318041295
18035306 180006218041302180412951804128318041284
18035307 180006218041297180413031804129818041294
18035308 180006218041300180413011804129718041296
18035309 180006218041304180413001804129618041299
18035310 180006218041307180412991804129518041302
18035311 180006218041298180413101804127918041280
18035312 180006218041301180413081804130318041297
18035313 180006218041305180413061804130118041300
18035314 180006218041309180413051804130018041304
18035315 180006218041313180413041804129918041307
18035316 180006218041303180413161804131018041298
18035317 180006218041284180412851804131818041302
18035318 180006218041306180413141804130818041301
18035319 180006218041311180413121804130618041305
$ ... 613 like lines cut
*ELEMENT_SOLID
$    EID     PID
$     N1      N2      N3      N4
18004156 1800060
1804124018041249180412481804125018041250180412501804125018041250
18004159 1800060
1804124918041240180412391804125018041250180412501804125018041250
18037979 1800066
1804204718041988180425051804204518042045180420451804204518042045
18037980 1800066
1804242918042397180419181804239518042395180423951804239518042395
18037981 1800066
1804252018042089180421201804254018042540180425401804254018042540
18037982 1800066
1804210218042494180420611804252718042527180425271804252718042527
18037983 1800066
1804250618042000180420461804245318042453180424531804245318042453
18037984 1800066
1804208918042118180421201804254018042540180425401804254018042540
18037985 1800066
1804245718042459180419921804241618042416180424161804241618042416
18037986 1800066
1804207018042532180420941804209618042096180420961804209618042096
$ ... 15060 like lines cut
*ELEMENT_SOLID
$    EID     PID
$     N1      N2      N3      N4      N5
18048317 1800001
1803416918034171180341721803417018045180180451801804518018045180
18048318 1800001
1803416918034249180342511803417118045182180451821804518218045182
*ELEMENT_SOLID
$    EID     PID
$     N1      N2      N3      N4      N5      N6
18004130 1800001
1803611718036128180361841803617318036120180361201803617618036176
*ELEMENT_SOLID
$    EID     PID
$     N1      N2      N3      N4      N5      N6      N7      N8
18002694 1800001
1803425218034250180342491803425118034172180341701803416918034171
18002754 1800001
1803404818034049180340371803403818034252180342501803424918034251
18002765 1800001
1803444018034438180344371803443918034400180343981803439718034399
18004125 1800001
1803614418036145180361731803617618036088180360891803611718036120
18047521 1800064
1804396318043985180439721804397318043993180439941804399518043996
18047522 1800064
1804399318043994180439951804399618043997180439981804399918044000
18047523 1800064
1804399718043998180439991804400018044001180440021804400318044004
18047524 1800064
1804400118044002180440031804400418044005180440061804400718044008
18047525 1800064
1804400518044006180440071804400818044009180440101804401118044012
18047526 1800064
1804400918044010180440111804401218044013180440141804401518044016
$ ... 1268 like lines cut
*PART
$HWCOLOR COMPS 1800001      18
$NAME                                                                           
bracket                                                                         
$      PID     SECID       MID     EOSID      HGID      GRAV    ADPOPT      TMID
   1800001         2      2019                   2                              
$HWCOLOR COMPS 1800059      21
$NAME                                                                           
Support_plate_S628_5p0                                                          
$      PID     SECID       MID     EOSID      HGID      GRAV    ADPOPT      TMID
   1800059         1      2000                   1         0         0          
$HWCOLOR COMPS 1800060      11
$NAME                                                                           
solid_2                                                                         
$      PID     SECID       MID     EOSID      HGID      GRAV    ADPOPT      TMID
   1800060         2      2020                   2                              
$HWCOLOR COMPS 1800062       5
$NAME                                                                           
tow_hook_shell                                                                  
$      PID     SECID       MID     EOSID      HGID      GRAV    ADPOPT      TMID
   1800062         3      3000                   1                              
$HWCOLOR COMPS 1800064       8
$NAME                                                                           
tow_hook_solid                                                                  
$      PID     SECID       MID     EOSID      HGID      GRAV    ADPOPT      TMID
   1800064         2      3001                   2                              
$HWCOLOR COMPS 1800066      21
$NAME                                                                           
tow_hook_solid_1                                                                
$      PID     SECID       MID     EOSID      HGID      GRAV    ADPOPT      TMID
   1800066         2      2009                   2                              
$HWCOLOR COMPS 1800067      55
$NAME                                                                           
tow_hook_solid_2                                                                
$      PID     SECID       MID     EOSID      HGID      GRAV    ADPOPT      TMID
   1800067         4      2000                   2                              
$HWCOLOR COMPS 1800068       9
$NAME                                                                           
upper_beam_contact_1                                                            
$      PID     SECID       MID     EOSID      HGID      GRAV    ADPOPT      TMID
   1800068         1      2020                   1                              
$HWCOLOR COMPS 1800069      25
$NAME                                                                           
lower_beam                                                                      
$      PID     SECID       MID     EOSID      HGID      GRAV    ADPOPT      TMID
   1800069         1      3001                   1                              
$HWCOLOR COMPS 1800070       5
$NAME                                                                           
mat20_title                                                                     
$      PID     SECID       MID     EOSID      HGID      GRAV    ADPOPT      TMID
   1800070         3      3002                   1                              
$HWCOLOR COMPS 1800071       9
$NAME                                                                           
mat123_title                                                                    
$      PID     SECID       MID     EOSID      HGID      GRAV    ADPOPT      TMID
   1800071         3      3003                   1                              
$HWCOLOR COMPS 1800072      41
$NAME                                                                           
upper_beam_mat133                                                               
$      PID     SECID       MID     EOSID      HGID      GRAV    ADPOPT      TMID
   1800072         3      2022                   1                              
*PART_INERTIA
$HWCOLOR COMPS 1800073      43
$NAME                                                                           
part_inertia_1                                                                  
$      PID     SECID       MID     EOSID      HGID      GRAV    ADPOPT      TMID
   1800073         4      2022                   2                              
$       XC        YC        ZC        TM      IRCS    NODEID
       0.0       0.0       0.0    1000.0         0         0
$      IXX       IXY       IXZ       IYY       IYZ       IZZ
 2899999.0       0.0       0.0       0.0       0.0       0.0
$      VTX       VTY       VTZ       VRX       VRY       VRZ
                                                            
*MAT_PIECEWISE_LINEAR_PLASTICITY_LOG_INTERPOLATION_TITLE
$HWCOLOR MATERIAL      2000      58                                             
S620_Alu_Gissmo                                                                 
$      MID       RHO         E        PR      SIGY      ETAN      FAIL      TDEL
      20002.7000E-06     62.81       0.3       0.2       0.0       0.0       0.0
$        C         P      LCSS      LCSR        VP       LCF
       0.0       0.0      2082                              
$     EPS1      EPS2      EPS3      EPS4      EPS5      EPS6      EPS7      EPS8
       0.0       0.0       0.0       0.0       0.0       0.0       0.0       0.0
$      ES1       ES2       ES3       ES4       ES5       ES6       ES7       ES8
       0.0       0.0       0.0       0.0       0.0       0.0       0.0       0.0
*MAT_MODIFIED_PIECEWISE_LINEAR_PLASTICITY
$HMNAME MATERIAL      2009AW-6082-T6_280MPA_EPS_0p3                             
$HWCOLOR MATERIAL      2009      18                                             
$      MID       RHO         E        PR      SIGY      ETAN      FAIL      TDEL
      20092.7000E-06      70.0       0.3     0.285                10.0          
$        C         P      LCSS      LCSR        VP   EPSTHIN    EPSMAJ    NUMINT
                          2068                 1.0                 0.3     -80.0
$     EPS1      EPS2      EPS3      EPS4      EPS5      EPS6      EPS7      EPS8
                                                                                
$      ES1       ES2       ES3       ES4       ES5       ES6       ES7       ES8
                                                                                
*MAT_ELASTIC_TITLE
$HWCOLOR MATERIAL      2010      11                                             
elastic_title                                                                   
$      MID       RHO         E        PR        DA        DB         K
      20107.8000E-06      70.0      0.33                              
*MAT_BARLAT_YLD2000_TITLE
$HWCOLOR MATERIAL      2019       3                                             
S632_MAT133_Gissmo
$      MID       RHO         E        PR       FIT      BETA      ITER    ISCALE
      20192.7000E-06      70.0       0.3       0.0       0.0       0.0       0.0
$        K        E0         N         C         P      HARD         A
                                     0.0       0.0     -2000       8.0
$   ALPHA1    ALPHA2    ALPHA3    ALPHA4    ALPHA5    ALPHA6    ALPHA7    ALPHA8
0.934139490.971548970.969851790.99339902  1.026752 0.9908042 1.0261521  1.028547
$     AOPT    OFFANG        P4    HTFLAG       HTA       HTB       HTC       HTD
       0.0                 0.0       0.0         0         0         0         0
$                                     A1        A2        A3
                                                            
$       V1        V2        V3        D1        D2        D3   USRFAIL
                                                                     0
*MAT_ELASTIC
$HMNAME MATERIAL      2020elastic                                               
$HWCOLOR MATERIAL      2020      10                                             
$      MID       RHO         E        PR        DA        DB         K
      20202.7000E-06      70.0      0.33                              
*MAT_MODIFIED_PIECEWISE_LINEAR_PLASTICITY_TITLE
$HWCOLOR MATERIAL      2021      11                                             
AW-6082-T6_280MPA_EPS_0p3                                                       
$      MID       RHO         E        PR      SIGY      ETAN      FAIL      TDEL
      20212.7000E-06      70.0       0.3     0.285                10.0          
$        C         P      LCSS      LCSR        VP   EPSTHIN    EPSMAJ    NUMINT
                          2068                 1.0                 0.3     -80.0
$     EPS1      EPS2      EPS3      EPS4      EPS5      EPS6      EPS7      EPS8
                                                                                
$      ES1       ES2       ES3       ES4       ES5       ES6       ES7       ES8
                                                                                
*MAT_BARLAT_YLD2000
$HMNAME MATERIAL      2022MATL133_2022                                          
$HWCOLOR MATERIAL      2022       3                                             
$      MID       RHO         E        PR       FIT      BETA      ITER    ISCALE
      20222.7000E-06      70.0       0.3       0.0       0.0       0.0       0.0
$        K        E0         N         C         P      HARD         A
                                     0.0       0.0     -2000       8.0
$   ALPHA1    ALPHA2    ALPHA3    ALPHA4    ALPHA5    ALPHA6    ALPHA7    ALPHA8
0.934139490.971548970.969851790.99339902  1.026752 0.9908042 1.0261521  1.028547
$     AOPT    OFFANG        P4    HTFLAG       HTA       HTB       HTC       HTD
       0.0                 0.0       0.0         0         0         0         0
$                                     A1        A2        A3
                                                            
$       V1        V2        V3        D1        D2        D3   USRFAIL
                                                                     0
*MAT_PIECEWISE_LINEAR_PLASTICITY_LOG_INTERPOLATION
$HMNAME MATERIAL      3000MATL24_3000                                           
$HWCOLOR MATERIAL      3000      58                                             
$      MID       RHO         E        PR      SIGY      ETAN      FAIL      TDEL
      30002.7000E-06     62.81       0.3       0.2       0.0       0.0       0.0
$        C         P      LCSS      LCSR        VP       LCF
       0.0       0.0      2082                              
$     EPS1      EPS2      EPS3      EPS4      EPS5      EPS6      EPS7      EPS8
       0.0       0.0       0.0       0.0       0.0       0.0       0.0       0.0
$      ES1       ES2       ES3       ES4       ES5       ES6       ES7       ES8
       0.0       0.0       0.0       0.0       0.0       0.0       0.0       0.0
*MAT_RIGID
$HMNAME MATERIAL      3001rigid_mat                                             
$HWCOLOR MATERIAL      3001      43                                             
$      MID       RHO         E        PR         N    COUPLE         M     ALIAS
      30017.8500E-06     210.0      0.33                                        
$      CMO      CON1      CON2
       1.0         5         2
$      LCO
          
*MAT_RIGID_TITLE
$HWCOLOR MATERIAL      3002      11                                             
Test_mat20_title
$      MID       RHO         E        PR         N    COUPLE         M     ALIAS
      30027.8500E-06     210.0      0.33                                        
$      CMO      CON1      CON2
       1.0         1         2
$      LCO
          
*MAT_PIECEWISE_LINEAR_PLASTICITY_LOG_INTERPOLATION_TITLE
$HWCOLOR MATERIAL      3003      58                                             
S620_Alu_Gissmo_HAZ                                                             
$      MID       RHO         E        PR      SIGY      ETAN      FAIL      TDEL
      30032.7000E-06     62.81       0.3       0.2       0.0       0.0       0.0
$        C         P      LCSS      LCSR        VP       LCF
       0.0       0.0      2085                              
$     EPS1      EPS2      EPS3      EPS4      EPS5      EPS6      EPS7      EPS8
       0.0       0.0       0.0       0.0       0.0       0.0       0.0       0.0
$      ES1       ES2       ES3       ES4       ES5       ES6       ES7       ES8
       0.0       0.0       0.0       0.0       0.0       0.0       0.0       0.0
*MAT_BARLAT_YLD2000_TITLE
$HWCOLOR MATERIAL      3004       3                                             
S632_MAT133_Gissmo_HAZ
$      MID       RHO         E        PR       FIT      BETA      ITER    ISCALE
      30042.7000E-06      70.0       0.3       0.0       0.0       0.0       0.0
$        K        E0         N         C         P      HARD         A
                                     0.0       0.0     -2086       8.0
$   ALPHA1    ALPHA2    ALPHA3    ALPHA4    ALPHA5    ALPHA6    ALPHA7    ALPHA8
0.934139490.971548970.969851790.99339902  1.026752 0.9908042 1.0261521  1.028547
$     AOPT    OFFANG        P4    HTFLAG       HTA       HTB       HTC       HTD
       0.0                 0.0       0.0         0         0         0         0
$                                     A1        A2        A3
                                                            
$       V1        V2        V3        D1        D2        D3   USRFAIL
                                                                     0
*MAT_ADD_EROSION_TITLE
$HMNAME MATERIALBEHAVIOR      2000s620_MAT_GISSMO_Failure                              
$HWCOLOR MATERIALBEHAVIOR      2000       8                                     
s620_MAT_GISSMO_Failure                                                         
$      MID      EXCL    MXPRES     MNEPS    EFFEPS    VOLEPS    NUMFIP       NCS
      2000                                                       -80.0          
$   MNPRES     SIGP1     SIGVM     MXEPS     EPSSH     SIGTH   IMPULSE    FAILTM
                                                                                
$     IDAM    DMGTYP     LCSDG     ECRIT    DMGEXP     DCRIT    FADEXP    LCREGD
         1       1.0      2055     -2054       2.0       0.0       8.0      2053
$   SIZFLG     REFSZ     NAHSV     LCSRS      SHRF     BIAXF
       0.0       1.0      14.0         0       1.0       1.0
*MAT_ADD_EROSION
$HMNAME MATERIALBEHAVIOR      2007S632_MAT133_GISSMO_Failure                           
$HWCOLOR MATERIALBEHAVIOR      2007       3                                     
$      MID      EXCL    MXPRES     MNEPS    EFFEPS    VOLEPS    NUMFIP       NCS
      2019       0.0       0.0       0.0       0.0       0.0     -50.0       0.0
$   MNPRES     SIGP1     SIGVM     MXEPS     EPSSH     SIGTH   IMPULSE    FAILTM
       0.0       0.0       0.0       0.0       0.0       0.0       0.0       0.0
$     IDAM    DMGTYP     LCSDG     ECRIT    DMGEXP     DCRIT    FADEXP    LCREGD
         1       1.0      2076     -2077       2.0       1.0      10.0      2078
$   SIZFLG     REFSZ     NAHSV     LCSRS      SHRF     BIAXF
       0.0       0.0       0.0      2079       1.0       1.0
*SECTION_SHELL
$HMNAME PROPERTIES         1p_shell_5p0mm                                                                   
$    SECID    ELFORM      SHRF       NIP     PROPT        QR     ICOMP     SETYP
         1        16    0.8333    &TW_01                                        
$       T1        T2        T3        T4      NLOC     MAREA      IDOF    EDGSET
       5.0       5.0       5.0       5.0                                        
*SECTION_SHELL_TITLE
$NAME                                                                           
p_shell_3p5mm                                                                   
$    SECID    ELFORM      SHRF       NIP     PROPT        QR     ICOMP     SETYP
         3        16     0.777         5                                        
$       T1        T2        T3        T4      NLOC     MAREA      IDOF    EDGSET
       3.5       3.5       3.5       3.5                                        
*SECTION_SOLID
$HMNAME PROPERTIES         2p_solid                                                                         
$    SECID    ELFORM
         2         1
*SECTION_SOLID_TITLE
$NAME                                                                           
p_solid4                                                                        
$    SECID    ELFORM
         4         1
*HOURGLASS_TITLE                                                                
h_shell                                                                         
$     HGID       IHQ        QM       IBQ        Q1        Q2        QB        QW
         1         8       0.1         0       1.5      0.06       0.1       0.1
*HOURGLASS                                                                      
$HMNAME HOURGLASS         2HourGlass_2                                                                     
$     HGID       IHQ        QM       IBQ        Q1        Q2       VDC        QW
         2         6       0.1         0       1.5      0.06       0.0       0.1
*CONSTRAINED_EXTRA_NODES_SET
$HMNAME CONSTRAINEDEXTRANODE         1constrainedextranode1                                                 
$      PID      NSID     IFLAG
   1800070        12         0
*CONSTRAINED_NODAL_RIGID_BODY
$HMNAME COMPS 1800061rigids                                                                  
$HWCOLOR COMPS 1800061      11
$      PID       CID       SID     PNODE      IPRT    DRFLAG    RRFLAG
  18035300             1801001                             0         0
*CONTACT_AUTOMATIC_SINGLE_SURFACE_ID
$HWCOLOR GROUPS       1      54
$      CIDHEADING                                                               
         1single_set                                                            
$     SSID               SSTYP              SBOXID    MBOXID       SPR       MPR
   1801002                   2                                                  
$       FS        FD        DC        VC       VDC    PENCHK        BT        DT
       0.2       0.2                                                            
$      SFS       SFM       SST       MST      SFST      SFMT       FSF       VSF
                                                                                
*CONTACT_AUTOMATIC_SINGLE_SURFACE_ID
$HWCOLOR GROUPS       2      54
$      CIDHEADING                                                               
         2single_part                                                           
$     SSID               SSTYP              SBOXID    MBOXID       SPR       MPR
   1800068                   3                                                  
$       FS        FD        DC        VC       VDC    PENCHK        BT        DT
       0.2       0.2                                                            
$      SFS       SFM       SST       MST      SFST      SFMT       FSF       VSF
                                                                                
*CONTACT_AUTOMATIC_SURFACE_TO_SURFACE_ID
$HWCOLOR GROUPS       3      12
$      CIDHEADING                                                               
         3contact_set                                                           
$     SSID      MSID     SSTYP     MSTYP    SBOXID    MBOXID       SPR       MPR
   1800067   1801003         3         2                                        
$       FS        FD        DC        VC       VDC    PENCHK        BT        DT
       0.2       0.2                                                            
$      SFS       SFM       SST       MST      SFST      SFMT       FSF       VSF
                                                                                
*DEFINE_TABLE
$HMNAME CURVES      2000S632_strain_rate                                                        
$HWCOLOR CURVES      2000       3
$     TBID       SFA      OFFA
      2000                    
$$ HM Entries in number of values =         7
$              VALUE      LCID
1.00000010000000E-06      2001
$              VALUE      LCID
1.00000010000000E-05      2002
$              VALUE      LCID
1.00000000000000E-04      2003
$              VALUE      LCID
1.00000000000000E-03      2004
$              VALUE      LCID
         0.010000001      2005
$              VALUE      LCID
                 0.1      2006
$              VALUE      LCID
                 0.2      2007
*DEFINE_CURVE_TITLE
$HWCOLOR CURVES      2001       4
$HMCURVE     3    3 S632_SR_0.001                                                                   
$NAME                                                                           
S632_SR_0.001                                                                   
$     LCID      SIDR       SFA       SFO      OFFA      OFFO    DATTYP     LCINT
      2001         0       1.01.0000E-03       0.0       0.0         0         0
$                 A1                  O1
                 0.0           333.39999
1.00000000000000E-03           335.39999
        0.0020000001           337.10001
        0.0049999999           341.20001
        0.0074999998           344.10001
*DEFINE_CURVE_TITLE
$HWCOLOR CURVES      2002       5
$HMCURVE     1    1 S632_SR_0.01                                                                    
$NAME                                                                           
S632_SR_0.01                                                                    
$     LCID      SIDR       SFA       SFO      OFFA      OFFO    DATTYP     LCINT
      2002         0       1.01.0055E-03       0.0       0.0         0         0
$                 A1                  O1
                 0.0           333.39999
1.00000000000000E-03           335.39999
        0.0020000001           337.10001
        0.0049999999           341.20001
        0.0074999998           344.10001
*DEFINE_CURVE_TITLE
$HWCOLOR CURVES      2003       6
$HMCURVE     2    2 S632_SR_0.1                                                                     
$NAME                                                                           
S632_SR_0.1                                                                     
$     LCID      SIDR       SFA       SFO      OFFA      OFFO    DATTYP     LCINT
      2003         0       1.01.0112E-03       0.0       0.0         0         0
$                 A1                  O1
                 0.0           333.39999
1.00000000000000E-03           335.39999
        0.0020000001           337.10001
        0.0049999999           341.20001
        0.0074999998           344.10001
*DEFINE_CURVE_TITLE
$HWCOLOR CURVES      2004       7
$HMCURVE     3    3 S632_SR_1                                                                       
$NAME                                                                           
S632_SR_1                                                                       
$     LCID      SIDR       SFA       SFO      OFFA      OFFO    DATTYP     LCINT
      2004         0       1.01.0170E-03       0.0       0.0         0         0
$                 A1                  O1
                 0.0           333.39999
1.00000000000000E-03           335.39999
        0.0020000001           337.10001
        0.0049999999           341.20001
        0.0074999998           344.10001
*DEFINE_CURVE_TITLE
$HWCOLOR CURVES      2005       8
$HMCURVE     1    1 S632_SR_10                                                                      
$NAME                                                                           
S632_SR_10                                                                      
$     LCID      SIDR       SFA       SFO      OFFA      OFFO    DATTYP     LCINT
      2005         0       1.01.0227E-03       0.0       0.0         0         0
$                 A1                  O1
                 0.0           333.39999
1.00000000000000E-03           335.39999
        0.0020000001           337.10001
        0.0049999999           341.20001
        0.0074999998           344.10001
*DEFINE_CURVE_TITLE
$HWCOLOR CURVES      2006       9
$HMCURVE     2    2 S632_SR_100                                                                     
$NAME                                                                           
S632_SR_100                                                                     
$     LCID      SIDR       SFA       SFO      OFFA      OFFO    DATTYP     LCINT
      2006         0       1.01.0285E-03       0.0       0.0         0         0
$                 A1                  O1
                 0.0           333.39999
1.00000000000000E-03           335.39999
        0.0020000001           337.10001
        0.0049999999           341.20001
        0.0074999998           344.10001
*DEFINE_CURVE_TITLE
$HWCOLOR CURVES      2007      13
$HMCURVE     3    3 S632_SR_200                                                                     
$NAME                                                                           
S632_SR_200                                                                     
$     LCID      SIDR       SFA       SFO      OFFA      OFFO    DATTYP     LCINT
      2007         0       1.01.0300E-03       0.0       0.0         0         0
$                 A1                  O1
                 0.0           333.39999
1.00000000000000E-03           335.39999
        0.0020000001           337.10001
        0.0049999999           341.20001
        0.0074999998           344.10001
*DEFINE_TABLE
$HMNAME CURVES      2086S632_strain_rate_HAZ                                                    
$HWCOLOR CURVES      2086       3
$     TBID       SFA      OFFA
      2086                    
$$ HM Entries in number of values =         2
$              VALUE      LCID
1.00000010000000E-06      2087
$              VALUE      LCID
1.00000010000000E-05      2088
*DEFINE_CURVE_TITLE
$HWCOLOR CURVES      2087       4
$HMCURVE     3    3 S632_SR_0.001_HAZ                                                               
$NAME                                                                           
S632_SR_0.001_HAZ                                                               
$     LCID      SIDR       SFA       SFO      OFFA      OFFO    DATTYP     LCINT
      2087         0       1.07.0000E-04       0.0       0.0         0         0
$                 A1                  O1
                 0.0           333.39999
1.00000000000000E-03           335.39999
        0.0020000001           337.10001
        0.0049999999           341.20001
        0.0074999998           344.10001
*DEFINE_CURVE_TITLE
$HWCOLOR CURVES      2088       5
$HMCURVE     1    1 S632_SR_0.01_HAZ                                                                
$NAME                                                                           
S632_SR_0.01_HAZ                                                                
$     LCID      SIDR       SFA       SFO      OFFA      OFFO    DATTYP     LCINT
      2088         0       1.07.0500E-04       0.0       0.0         0         0
$                 A1                  O1
                 0.0           333.39999
1.00000000000000E-03           335.39999
        0.0020000001           337.10001
        0.0049999999           341.20001
        0.0074999998           344.10001
*DEFINE_TABLE_2D_TITLE
$HWCOLOR CURVES      2082      24
$NAME                                                                           
S620_strain_rate                                                                
$     LCID       SFA      OFFA
      2082       1.0       0.0
$$ HM Entries in number of values =         8
$              VALUE                LCID
1.00000000000000E-07                2037
$              VALUE                LCID
1.00000000000000E-06                2038
$              VALUE                LCID
1.00000000000000E-05                2039
$              VALUE                LCID
1.00000000000000E-04                2040
$              VALUE                LCID
1.00000000000000E-03                2041
$              VALUE                LCID
                0.01                2042
$              VALUE                LCID
                 0.1                2043
$              VALUE                LCID
                 1.0                2044
*DEFINE_CURVE_TITLE
$HWCOLOR CURVES      2037       3
$HMCURVE     3    3 Minth_s620_SR_0.0001                                                            
$NAME                                                                           
Minth_s620_SR_0.0001                                                            
$     LCID      SIDR       SFA       SFO      OFFA      OFFO    DATTYP     LCINT
      2037         0       1.01.0000E-03       0.0       0.0      1001         0
$                 A1                  O1
                 0.0              191.97
1.00000000000000E-04              200.39
2.00000000000000E-04              203.03
3.00000000000000E-04              205.45
4.00000000000000E-04              206.96
*DEFINE_CURVE_TITLE
$HWCOLOR CURVES      2038       4
$HMCURVE     1    1 Minth_s620_SR_0.001                                                             
$NAME                                                                           
Minth_s620_SR_0.001                                                             
$     LCID      SIDR       SFA       SFO      OFFA      OFFO    DATTYP     LCINT
      2038         0       1.01.0000E-03       0.0       0.0      1001         0
$                 A1                  O1
                 0.0              191.98
1.00000000000000E-04               200.4
2.00000000000000E-04              203.04
3.00000000000000E-04              205.46
4.00000000000000E-04              206.97
*DEFINE_CURVE_TITLE
$HWCOLOR CURVES      2039       5
$HMCURVE     2    2 Minth_s620_SR_0.01                                                              
$NAME                                                                           
Minth_s620_SR_0.01                                                              
$     LCID      SIDR       SFA       SFO      OFFA      OFFO    DATTYP     LCINT
      2039         0       1.01.0000E-03       0.0       0.0      1001         0
$                 A1                  O1
                 0.0              191.99
1.00000000000000E-04              200.41
2.00000000000000E-04              203.05
3.00000000000000E-04              205.47
4.00000000000000E-04              206.98
*DEFINE_CURVE_TITLE
$HWCOLOR CURVES      2040       6
$HMCURVE     3    3 Minth_s620_SR_0.1                                                               
$NAME                                                                           
Minth_s620_SR_0.1                                                               
$     LCID      SIDR       SFA       SFO      OFFA      OFFO    DATTYP     LCINT
      2040         0       1.01.0000E-03       0.0       0.0      1001         0
$                 A1                  O1
                 0.0              192.19
1.00000000000000E-04              200.62
2.00000000000000E-04              203.27
3.00000000000000E-04              205.69
4.00000000000000E-04               207.2
*DEFINE_CURVE_TITLE
$HWCOLOR CURVES      2041       7
$HMCURVE     1    1 Minth_s620_SR_1.0                                                               
$NAME                                                                           
Minth_s620_SR_1.0                                                               
$     LCID      SIDR       SFA       SFO      OFFA      OFFO    DATTYP     LCINT
      2041         0       1.01.0000E-03       0.0       0.0      1001         0
$                 A1                  O1
                 0.0              193.34
1.00000000000000E-04              201.82
2.00000000000000E-04              204.48
3.00000000000000E-04              206.92
4.00000000000000E-04              208.44
*DEFINE_CURVE_TITLE
$HWCOLOR CURVES      2042       8
$HMCURVE     2    2 Minth_s620_SR_10.0                                                              
$NAME                                                                           
Minth_s620_SR_10.0                                                              
$     LCID      SIDR       SFA       SFO      OFFA      OFFO    DATTYP     LCINT
      2042         0       1.01.0000E-03       0.0       0.0      1001         0
$                 A1                  O1
                 0.0              197.09
1.00000000000000E-04              205.73
2.00000000000000E-04              208.45
3.00000000000000E-04              210.93
4.00000000000000E-04              212.48
*DEFINE_CURVE_TITLE
$HWCOLOR CURVES      2043       9
$HMCURVE     3    3 Minth_s620_SR_100.0                                                             
$NAME                                                                           
Minth_s620_SR_100.0                                                             
$     LCID      SIDR       SFA       SFO      OFFA      OFFO    DATTYP     LCINT
      2043         0       1.01.0000E-03       0.0       0.0      1001         0
$                 A1                  O1
                 0.0              206.23
1.00000000000000E-04              215.28
2.00000000000000E-04              218.12
3.00000000000000E-04              220.72
4.00000000000000E-04              222.34
*DEFINE_CURVE_TITLE
$HWCOLOR CURVES      2044      13
$HMCURVE     1    1 Minth_s620_SR_1000.0                                                            
$NAME                                                                           
Minth_s620_SR_1000.0                                                            
$     LCID      SIDR       SFA       SFO      OFFA      OFFO    DATTYP     LCINT
      2044         0       1.01.0000E-03       0.0       0.0      1001         0
$                 A1                  O1
                 0.0              224.94
1.00000000000000E-04               234.8
2.00000000000000E-04               237.9
3.00000000000000E-04              240.73
4.00000000000000E-04               242.5
                 0.0                 0.0
*DEFINE_TABLE_2D_TITLE
$HWCOLOR CURVES      2085      24
$NAME                                                                           
S620_strain_rate_HAZ                                                            
$     LCID       SFA      OFFA
      2085       1.0       0.0
$$ HM Entries in number of values =         2
$              VALUE                LCID
1.00000000000000E-07                2083
$              VALUE                LCID
1.00000000000000E-06                2084
*DEFINE_CURVE_TITLE
$HWCOLOR CURVES      2083       3
$HMCURVE     3    3 Minth_s620_SR_0.0001_haz                                                        
$NAME                                                                           
Minth_s620_SR_0.0001_haz                                                        
$     LCID      SIDR       SFA       SFO      OFFA      OFFO    DATTYP     LCINT
      2083         0       1.07.0000E-04       0.0       0.0      1001         0
$                 A1                  O1
                 0.0              191.97
1.00000000000000E-04              200.39
2.00000000000000E-04              203.03
3.00000000000000E-04              205.45
4.00000000000000E-04              206.96
*DEFINE_CURVE_TITLE
$HWCOLOR CURVES      2084       4
$HMCURVE     1    1 Minth_s620_SR_0.001_HAZ                                                         
$NAME                                                                           
Minth_s620_SR_0.001_HAZ                                                         
$     LCID      SIDR       SFA       SFO      OFFA      OFFO    DATTYP     LCINT
      2084         0       1.07.0000E-04       0.0       0.0      1001         0
$                 A1                  O1
                 0.0              191.98
1.00000000000000E-04               200.4
2.00000000000000E-04              203.04
3.00000000000000E-04              205.46
4.00000000000000E-04              206.97
*DEFINE_CURVE
$HMNAME CURVES      2068AW-6082-T6_280MPa                                                       
$HWCOLOR CURVES      2068      11
$HMCURVE     1    2 AW-6082-T6_280MPa                                                               
$     LCID      SIDR       SFA       SFO      OFFA      OFFO    DATTYP     LCINT
      2068                 1.01.0000E-03                                        
$                  X                   Y
                 0.0               285.0
               0.005             294.643
                0.01             301.192
               0.015             307.061
                0.02             312.238
*DEFINE_CURVE
$HMNAME CURVES      2076S632_SR_LCSDG                                                           
$HWCOLOR CURVES      2076      17
$HMCURVE     1    1 S632_SR_LCSDG                                                                   
$     LCID      SIDR       SFA       SFO      OFFA      OFFO    DATTYP     LCINT
      2076         0       1.0       1.0       0.0       0.0         0         0
$                  X                   Y
         -0.33333334           2.7350771
         -0.31564379           2.4146309
         -0.29568851           2.1246736
           -0.273096           1.8645041
         -0.24743582           1.6333065
*DEFINE_CURVE
$HMNAME CURVES      2077S632_SR_ECRIT                                                           
$HWCOLOR CURVES      2077      20
$HMCURVE     2    2 S632_SR_ECRIT                                                                   
$     LCID      SIDR       SFA       SFO      OFFA      OFFO    DATTYP     LCINT
      2077         0       1.0       1.0       0.0       0.0         0         0
$                  X                   Y
                 0.0           5.0989752
         0.029578499           5.0989752
         0.060522702           5.0989752
         0.092714503           5.0989752
           0.1259881           5.0989752
*DEFINE_CURVE
$HMNAME CURVES      2078S632_SR_LCREGD                                                          
$HWCOLOR CURVES      2078      21
$HMCURVE     3    3 S632_SR_LCREGD                                                                  
$     LCID      SIDR       SFA       SFO      OFFA      OFFO    DATTYP     LCINT
      2078         0       1.0       1.0       0.0       0.0         0         0
$                  X                   Y
                 0.0                 3.0
                 1.0                 2.0
                 2.0                 1.0
                 3.0          0.47999999
                 4.0          0.28999999
                 6.0                 0.2
                12.0          0.13600001
*DEFINE_CURVE
$HMNAME CURVES      2079S632_SR_LCSRS                                                           
$HWCOLOR CURVES      2079      24
$HMCURVE     1    1 S632_SR_LCSRS                                                                   
$     LCID      SIDR       SFA       SFO      OFFA      OFFO    DATTYP     LCINT
      2079         01.0000E-03       1.0       0.0       0.0         0         0
$                  X                   Y
1.00000000000000E-03                 1.0
                 0.1                 1.0
                 1.0                 1.0
                10.0                 1.0
               100.0                 1.0
               200.0                 1.0
*DEFINE_CURVE_TITLE
$HWCOLOR CURVES      2053      21
$HMCURVE     2    2 S620_Regularization_LCREGD                                                      
$NAME                                                                           
S620_Regularization_LCREGD                                                      
$     LCID      SIDR       SFA       SFO      OFFA      OFFO    DATTYP     LCINT
      2053         0       1.0       1.0       0.0       0.0         0      1001
$                  X                   Y
                 1.0                 1.0
                 2.0               0.301
                 4.0               0.141
*DEFINE_CURVE_TITLE
$HWCOLOR CURVES      2054      20
$HMCURVE     1    1 S620_Instability_ECRIT                                                          
$NAME                                                                           
S620_Instability_ECRIT                                                          
$     LCID      SIDR       SFA       SFO      OFFA      OFFO    DATTYP     LCINT
      2054         0       1.0       1.0       0.0       0.0         0      1001
$                  X                   Y
              -0.667              11.042
              -0.653              10.741
               -0.64              10.445
              -0.626              10.153
              -0.613               9.865
              -0.599               9.581
*DEFINE_CURVE_TITLE
$HWCOLOR CURVES      2055      17
$HMCURVE     3    3 S620_Triaxiality_LCSDG                                                          
$NAME                                                                           
S620_Triaxiality_LCSDG                                                          
$     LCID      SIDR       SFA       SFO      OFFA      OFFO    DATTYP     LCINT
      2055         0       1.0       1.0       0.0       0.0         0      1001
$                  X                   Y
              -0.667               6.544
              -0.653               2.489
               -0.64               2.323
              -0.626               2.249
              -0.613                2.21
              -0.599               2.188
$$
$$ Sets Defined In HyperMesh
$$
*SET_NODE_LIST_TITLE
$NAME                                                                           
test_set_node                                                                   
$      SID       DA1       DA2       DA3       DA4SOLVER    
        12                                                  
  18034037  18034038  18034048  18034049  18034249  18034251  18034252  18041228
  18041229  18041256
*SET_NODE_LIST
$HMSET
$HMNAME SETS 1801001rigid18035300nodeset                                                    
$      SID       DA1       DA2       DA3       DA4SOLVER    
   1801001                                                  
  18041257  18034037  18034038  18034048  18034049  18041228  18041229  18041256
*SET_NODE_LIST
$HMSET
$HMNAME SETS 1801004node_list                                                               
$      SID       DA1       DA2       DA3       DA4SOLVER    
   1801004                                        MECH      
  18041573  18041574  18041575  18041576  18041577  18041578  18041579  18041580
  18041581  18041582  18041583  18041584  18041585  18041586  18041587  18041594
  18041595  18041596  18041621  18041622  18041623  18041624  18041625  18041626
  18041627  18041628  18041629  18041630  18041631  18041632  18041639  18041640
  18041641  18041642  18041643  18041644  18041658  18041660  18041662  18041664
  18041666  18041668  18041670  18041672  18041674  18041676  18041678  18041680
  18041682  18041684  18041686  18041688  18041690  18041692  18041698  18041708
  18041710  18041712  18041714  18041716  18041718  18041720  18041722  18041724
  18041726  18041728  18041730  18041732  18041733  18041734  18041735  18041736
  18041738  18041740  18041742  18041744  18041758  18041760  18041762  18041764
  18041766  18041768  18041770  18041772  18041774  18041776  18041777  18041778
  18041779  18041780  18041781  18041782  18041783  18041784  18041785  18041786
  18041787  18041788  18041791  18041792  18041795  18041808  18041810  18041812
  18041814  18041816  18041818  18041820  18041822  18041823  18041824  18041825
  18041826  18041827  18041828  18041829  18041830  18041831  18041832  18041833
  18041834  18041835  18041836  18041837  18041838  18041839  18041840  18041841
  18041842  18041843  18041856  18041858  18041860  18041862  18041863  18041864
  18041866  18041868  18041870  18041872  18041874  18041875  18041876  18041877
  18041878  18041879  18041880  18041881  18041882  18041883  18041884  18041885
  18041886  18041887  18041888  18041889  18041890  18041891  18041893  18041895
$ ... 65 like lines cut
$$
$$ Sets Defined In HyperMesh
$$
*SET_PART_LIST_TITLE
$NAME                                                                           
Crosssection Crashbox front                                                     
$      SID       DA1       DA2       DA3       DA4SOLVER    
   1801000                                        MECH      
   1800064
*SET_PART_LIST
$HMSET
$HMNAME SETS 1801002single_set                                                              
$      SID       DA1       DA2       DA3       DA4SOLVER    
   1801002                                        MECH      
   1800068   1800069
*SET_PART_LIST
$HMSET
$HMNAME SETS 1801003contact_set                                                             
$      SID       DA1       DA2       DA3       DA4SOLVER    
   1801003                                        MECH      
   1800066   1800068   1800069
$$
$$ Sets Defined In HyperMesh
$$
*SET_SHELL_LIST
$HMSET
$HMNAME SETS 1801005shell_list                                                              
$      SID       DA1       DA2       DA3       DA4
   1801005                                        
  18047976  18047977  18047979  18047981  18047982  18047983  18047984  18047986
  18047989  18047990  18048012  18048016  18048216  18048217  18048219  18048221
  18048222  18048223  18048224  18048226  18048229  18048230  18048252  18048256
*SET_SHELL_LIST_TITLE
$NAME                                                                           
test_set_shell_                                                                 
$      SID       DA1       DA2       DA3       DA4
   1801006                                        
  18047976  18047977  18047979  18047981  18047982  18047983  18047984  18047986
*END
$$<?xml version="1.0" encoding="utf-8"?>
$$<Altair_XML_Export>
$$<UDM xmlns:SOAP-ENV="http://schemas.xmlsoap.org/soap/envelope/" xmlns:SOAP-ENC="http://schemas.xmlsoap.org/soap/encoding/" xmlns:xsi="http://www.w3.org/2001/XMLSchema-instance" xmlns:xsd="http://www.w3.org/2001/XMLSchema" xmlns:udmcfg="http://schemas.altair.com/AltairUDMRuntimeConfig" xmlns:udmxml="http://schemas.altair.com/AltairUDM" xmlns:importrules="http://schemas.altair.com/hsm/importrules"
$$</Altair_XML_Export>
